/*---------------------------------------------------------------------------*\
| =========                 |                                                 |
| \\      /  F ield         | OpenFOAM: The Open Source CFD Toolbox           |
|  \\    /   O peration     | Version:  v2012                                 |
|   \\  /    A nd           | Website:  www.openfoam.com                      |
|    \\/     M anipulation  |                                                 |
\*---------------------------------------------------------------------------*/
Build  : _7bdb509494-20201222 OPENFOAM=2012
Arch   : "LSB;label=32;scalar=64"
Exec   : surfaceFeatureExtract
Date   : Apr 13 2021
Time   : 19:31:20
Host   : LAPTOP-40EVH70C
PID    : 7758
I/O    : uncollated
Case   : /home/zstyle/OpenFOAM_files/hotheater1
nProcs : 1
trapFpe: Floating point exception trapping enabled (FOAM_SIGFPE).
fileModificationChecking : Monitoring run-time modified files using timeStampMaster (fileModificationSkew 5, maxFileModificationPolls 20)
allowSystemOperations : Allowing user-supplied system call operations

// * * * * * * * * * * * * * * * * * * * * * * * * * * * * * * * * * * * * * //
Create time


Note: Feature line extraction only valid on closed manifold surfaces

Reading surfaceFeatureExtractDict

Surfaces     : ellip.stl
Output       : ellip
Load options : offset
Write options: writeObj=yes writeVTK=off

Statistics:
Triangles    : 1768 in 1 region(s)
Vertices     : 886
Bounding Box : (-1.18745e-09 -6.96528e-09 -1.00037e-09) (1.19031e-09 6.95906e-09 1.00044e-09)

Constructing feature set from included angle 150
Selecting edges based purely on geometric tests: no

Initial Feature set:
    points : 14
    edges  : 61
    of which
        region edges   : 0
        external edges : 47
        internal edges : 14

Final Feature set:
    points : 65
    of which
        convex             : 9
        concave            : 0
        mixed              : 5
        non-feature        : 51
    edges  : 61
    of which
        external edges     : 47
        internal edges     : 14
        flat edges         : 0
        open edges         : 0
        multiply connected : 0

Writing extendedFeatureEdgeMesh to "/home/zstyle/OpenFOAM_files/hotheater1/constant/extendedFeatureEdgeMesh/ellip.extendedFeatureEdgeMesh"

Writing extendedEdgeMesh components to "/home/zstyle/OpenFOAM_files/hotheater1/constant/extendedFeatureEdgeMesh/ellip"
Writing 9 convex feature points to "/home/zstyle/OpenFOAM_files/hotheater1/constant/extendedFeatureEdgeMesh/ellip_convexFeaturePts.obj"
Writing 0 concave feature points to "/home/zstyle/OpenFOAM_files/hotheater1/constant/extendedFeatureEdgeMesh/ellip_concaveFeaturePts.obj"
Writing 5 mixed feature points to "/home/zstyle/OpenFOAM_files/hotheater1/constant/extendedFeatureEdgeMesh/ellip_mixedFeaturePts.obj"
Writing 5 mixed feature point structure to "/home/zstyle/OpenFOAM_files/hotheater1/constant/extendedFeatureEdgeMesh/ellip_mixedFeaturePtsStructure.obj"
Writing 47 external edges to "/home/zstyle/OpenFOAM_files/hotheater1/constant/extendedFeatureEdgeMesh/ellip_externalEdges.obj"
Writing 14 internal edges to "/home/zstyle/OpenFOAM_files/hotheater1/constant/extendedFeatureEdgeMesh/ellip_internalEdges.obj"
Writing 0 flat edges to "/home/zstyle/OpenFOAM_files/hotheater1/constant/extendedFeatureEdgeMesh/ellip_flatEdges.obj"
Writing 0 open edges to "/home/zstyle/OpenFOAM_files/hotheater1/constant/extendedFeatureEdgeMesh/ellip_openEdges.obj"
Writing 0 multiple edges to "/home/zstyle/OpenFOAM_files/hotheater1/constant/extendedFeatureEdgeMesh/ellip_multipleEdges.obj"
Writing 0 region edges to "/home/zstyle/OpenFOAM_files/hotheater1/constant/extendedFeatureEdgeMesh/ellip_regionEdges.obj"
Writing 61 edge directions to "/home/zstyle/OpenFOAM_files/hotheater1/constant/extendedFeatureEdgeMesh/ellip_edgeDirections.obj"

Writing featureEdgeMesh to "/home/zstyle/OpenFOAM_files/hotheater1/constant/triSurface/ellip.eMesh"
ExecutionTime = 0.03 s  ClockTime = 0 s

End

